20
                    3D
 Structure written by MMmdl.
 50 54  0  0  1  0            999 V2000
    8.7499    9.1122   17.0454 O   0  0  0  0  0  0
    7.7721    8.4176   17.3121 C   0  0  0  0  0  0
    7.5779    7.1693   16.8413 N   0  0  0  0  0  0
    8.3689    6.3364   16.0194 C   0  0  0  0  0  0
    9.7668    6.4147   16.0004 C   0  0  0  0  0  0
   10.5150    5.4886   15.2816 C   0  0  0  0  0  0
    9.8750    4.4611   14.5948 C   0  0  0  0  0  0
    8.4863    4.3866   14.5828 C   0  0  0  0  0  0
    7.7150    5.3324   15.2703 C   0  0  0  0  0  0
    6.3049    5.3200   15.1815 N   0  0  0  0  0  0
    5.5929    4.0459   15.0839 C   0  0  0  0  0  0
    4.0683    4.2215   15.2729 C   0  0  0  0  0  0
    3.5568    5.3004   14.3496 N   0  3  0  0  0  0
    4.2943    6.6069   14.5125 C   0  0  0  0  0  0
    5.7975    6.3804   14.3095 C   0  0  0  0  0  0
    6.6786    8.8970   18.1847 C   0  0  0  0  0  0
    6.7331   10.0974   18.8745 C   0  0  0  0  0  0
    5.2315   10.3548   19.7030 S   0  0  0  0  0  0
    4.6461    8.8413   19.0563 C   0  0  0  0  0  0
    3.2766    8.3671   19.2449 C   0  0  0  0  0  0
    2.3586    9.0680   20.0544 C   0  0  0  0  0  0
    1.0320    8.6430   20.1908 C   0  0  0  0  0  0
    0.6250    7.5030   19.5069 C   0  0  0  0  0  0
   -0.6251    6.9563   19.4993 O   0  0  0  0  0  0
   -0.5992    5.8116   18.6486 C   0  0  0  0  0  0
    0.8289    5.6246   18.1023 O   0  0  0  0  0  0
    1.5146    6.8020   18.7268 C   0  0  0  0  0  0
    2.8359    7.2053   18.5813 C   0  0  0  0  0  0
    5.5434    8.2270   18.3174 N   0  0  0  0  0  0
    6.7793    6.6758   17.2108 H   0  0  0  0  0  0
   10.2891    7.2002   16.5253 H   0  0  0  0  0  0
   11.5917    5.5705   15.2517 H   0  0  0  0  0  0
   10.4571    3.7201   14.0669 H   0  0  0  0  0  0
    8.0218    3.5766   14.0414 H   0  0  0  0  0  0
    5.7895    3.6080   14.1041 H   0  0  0  0  0  0
    5.9674    3.3384   15.8249 H   0  0  0  0  0  0
    3.5493    3.2832   15.0761 H   0  0  0  0  0  0
    3.8493    4.4953   16.3056 H   0  0  0  0  0  0
    3.6774    4.9850   13.3977 H   0  0  0  0  0  0
    3.9085    7.3331   13.7967 H   0  0  0  0  0  0
    4.0966    7.0045   15.5091 H   0  0  0  0  0  0
    6.3361    7.3095   14.5011 H   0  0  0  0  0  0
    5.9710    6.1142   13.2664 H   0  0  0  0  0  0
    7.5454   10.8058   18.9307 H   0  0  0  0  0  0
    2.6691    9.9542   20.5885 H   0  0  0  0  0  0
    0.3331    9.1834   20.8119 H   0  0  0  0  0  0
   -0.8933    4.9279   19.2159 H   0  0  0  0  0  0
   -1.2927    5.9564   17.8196 H   0  0  0  0  0  0
    3.4900    6.6134   17.9595 H   0  0  0  0  0  0
    2.5726    5.4478   14.5223 H   0  0  0  0  0  0
  1  2  2  0  0  0
  2  3  1  0  0  0
  2 16  1  0  0  0
  3  4  1  0  0  0
  3 30  1  0  0  0
  4  9  1  0  0  0
  4  5  2  0  0  0
  5  6  1  0  0  0
  5 31  1  0  0  0
  6  7  2  0  0  0
  6 32  1  0  0  0
  7  8  1  0  0  0
  7 33  1  0  0  0
  8  9  2  0  0  0
  8 34  1  0  0  0
  9 10  1  0  0  0
 10 15  1  0  0  0
 10 11  1  0  0  0
 11 12  1  0  0  0
 11 35  1  0  0  0
 11 36  1  0  0  0
 12 13  1  0  0  0
 12 37  1  0  0  0
 12 38  1  0  0  0
 13 14  1  0  0  0
 13 39  1  0  0  0
 13 50  1  0  0  0
 14 15  1  0  0  0
 14 40  1  0  0  0
 14 41  1  0  0  0
 15 42  1  0  0  0
 15 43  1  0  0  0
 16 29  1  0  0  0
 16 17  2  0  0  0
 17 18  1  0  0  0
 17 44  1  0  0  0
 18 19  1  0  0  0
 19 20  1  0  0  0
 19 29  2  0  0  0
 20 28  1  0  0  0
 20 21  2  0  0  0
 21 22  1  0  0  0
 21 45  1  0  0  0
 22 23  2  0  0  0
 22 46  1  0  0  0
 23 27  1  0  0  0
 23 24  1  0  0  0
 24 25  1  0  0  0
 25 26  1  0  0  0
 25 47  1  0  0  0
 25 48  1  0  0  0
 26 27  1  0  0  0
 27 28  2  0  0  0
 28 49  1  0  0  0
M  CHG  1  13   1
M  END
> <i_m_stars>
3

> <s_m_entry_id>
7

> <s_m_entry_name>
chk1_3u9n_sar_1_db.46

> <s_m_Source_Path>
E:\1work\sh\inoutputs\inoutputs

> <s_m_Source_File>
CHK1_3u9n_corehop.mae

> <i_m_Source_File_Index>
3

> <s_fepmapper_entryid>
3

> <i_fepmapper_bias>
0

> <i_fepmapper_affinity>
1

> <r_user_dG_exp>
-9.208

> <r_fepmapper_exp_dG>
-9.208

> <i_fepmapper_unit>
1

> <r_m_Shape_Sim>
0.991224159388009

> <s_valid_Target_Source>
human

> <s_valid_Target_Tissue>
none

> <s_valid_Target_Subtype>
none

> <r_valid_delta_G_assoc(297_K_kcal/mol)>
-9.20806411322439

> <s_valid_Citation_Reference>
ACS Med Chem Lett 2012 3 pg 123 # 20

> <r_valid_affinity>
0.17

> <i_valid_affinity_bin>
1

> <s_valid_Affinity_Type>
ic_50

> <s_valid_ligand_variant_code>
23910-1

> <i_valid_Citation_Id>
4036

> <s_valid_version>
41818_23910-1_2013-3-27

> <b_valid_affinity_boolean>
1

> <r_valid_Affinity_chk1_(uM)>
0.17

> <s_m_subgroupid>
CHK1_3u9n_corehop

> <s_m_subgroup_title>
CHK1_3u9n_corehop

> <b_m_subgroup_collapsed>
0

$$$$
